以學術眼光而言，理論上的似一維假設要成立時，所要接受的挑戰頗多。不僅來自有限
速度的能量及動量由壁面往截面中心的傳遞過程，能量及動量邊界層的存在，以及流線方向
的系統參數不能變化太大(如流道截面積變化劇烈)，在這些情形下會使得截面積上的性質十
分不均勻，壁面附近與截面中心性質差異頗大，造成截面積上馬赫數分怖不均勻(同一截面積
上，截面中心的馬赫數大於 1 而在壁面附近馬赫數小於 1)，或是延流線方向的相鄰截面性質
變化劇烈(如急速擴張管或是角度大的彎管) 。因此可以預見在實際使用上，同一截面馬赫數
不均，就算截面平均馬赫數小於(大於)1，理論的均一的馬赫數是否可以等同實際平均馬赫
數，不無疑問，傳統可壓縮流基礎理論的結果實際適用性如何，非常值得探討。 
 
二、文獻探討與研究方法 
早期可壓縮流，大部分屬於航空領域與一般大尺度內流道，而近十年內對於可壓縮流理
論的應用，大部分皆往小尺度的內流道甚至微流道的研究做發展[2-5]，這顯然與電子散熱及
微機電的興起與應用息息相關。 
本計畫以產業上通用的商用軟體 ANSYS 下的 ICEM-CFD 建構內流道的幾何形狀，建立
網格並設定邊界條件後，再套用於 CFX5.7.1 中來進行求解及後處理。ANSYS CFX-5.7.1 為
泛用型計算流體力學（CFD）軟體，結合了前處理（CFX-Mesh，CFX-Pre），求解器（CFX-Solver）
和後處理（CFX-Post）的功能，來模擬可壓縮流的內部流場，並有關性質變化的物理觀念。 
 
三、結果與討論 
本計畫流道幾何形狀分為直流道與非直流道(如 L 型流道、U 型流道)兩部份及微流道。 
(A) 本研究在第一部份主要是探討直流道似一維基礎理論的有效(誤差)範圍(即理論的馬赫數
可以等同實際平均馬赫數的範圍)。本部份研究所選取的重要系統參數是以圖 1 幾何為主，改
變其流道長寬比(在固定流道截面積變化率下，入口寬度與流道長度比)，內流道截面積變化
率(固定入口寬度與流道長度)，探討數值計算結果與理論值的誤差。 
結合連續方程式、動量方程式、能量方程式、理想氣體狀態方程式、馬赫數關係式、理想
氣體音速關係式，可以推導出以下似一維理論式： 
( )
( )[ ] ( ) ( ) ( )[ ]( )[ ] 0MMdM1k2 kM1M1k1kMTc qdM1k2 kM1Ddxf2kMAdA 2
22
2
P
2
2
H
2
=
⎭⎬
⎫
⎩⎨
⎧
−+
+−−−+−+
+++−  
(i) 僅考慮面積束縮與摩擦力 
本案例首先探討入口面積(Ain)為 12mm×12mm、長度(L) 160mm、出口面積 4mmx4mm，
面積變化為 A=Ain*(1+K*X/L), 其中 X 為流道長度方向(從入口算起)任一點的距離，而
K=1-16/144=-128/144，入口壓力為 170000Pa、入口溫度為 373K，出口壓力為 156000Pa，
工作流體的選擇為可壓縮理想氣體的水蒸氣。圖 2 為數值計算(截面平均值)與理論壓力分
佈，可明顯看出較大的差異約是在流道 2/3 長度以後。圖 3 為流道方向各位置壓力的相對
差異定義為 |Pn(X)-Pc(X)|/Pn(X)，其中 Pn 為數值計算壓力，Pc 為理論壓力。最大相對誤
差約 1.5%，若此誤差為可接受範圍，則此流道的壓力分佈便以利用理論求出即可。圖 4-5、
圖 6-7 分別為 Mach No.與溫度的分佈，其中圖 5 的定義為|Mn(X)-Mc(X)|，而圖 7 的溫度
差定義為 |Tn(X)-Tc(X)|/Tn(X)。在固定面積變化率 K 情況下，分別計算入口面積為 3mm×
3mm(出口面積為 1mm×1mm)、1.2mm×1.2mm(出口面積為 0.4mm×0.4mm)，數值計算與理
論值之差異如圖 8(壓力)、9(馬赫數)及 10(溫度)所示，圖中可看出數值計算與理論值的差
 2
理論值比較，若是考慮截面的均勻度則會有較大的誤差，尤其是有熱傳效應時其截面溫度
並不均勻，且是造成數值計算與理論值有”波形”差異現象的原因。 
(iii) 流道面積、摩擦、熱傳同時發生情況 
本案例計算條件與第一部份相同，入口壓力為 170000Pa，溫度為 373K、出口壓力為
156000Pa，輸入熱量 Q/m_dot 儘量控制在 1.585E+04 Joul/Kg，面積變化率 K=-128/144，
探討案例入口面積分別是 12mm×12mm、3mm×3mm 與 1.2mm×1.2mm。圖 32-34 分別壓力、
馬赫數與溫度之數值計算與理論值之差異，圖中可看出壓力與馬赫數趨勢與(i)部份相同
(參考圖 8-9)，而溫度則與(ii)部份趨勢相同(參考圖 28)。這與圖 26-27 有一致性，即壓力(或
馬赫數)對長寬比的敏感度摩擦較大於熱傳效應，而當摩擦與熱傳同時發生時，會同時反
應在流場的壓力(馬赫數)與溫度場上。 
(B) L 型與 U 型流道的適應性 
上述的討論發現若在能忍受的差異下，用理論計算來初步估算直流道的流場特性似乎
是可行的，如此對不只可避免複雜的三維計算且也可很快初步設計出所需的流道(尤其是
微流道)。但當流道為非直流道，則流場會有其他因幾何因素而產生的效應使得流場特性
是否也可用理論值來近似不無疑問，因此本計畫此部份會探討 L 型與 U 型流道流場特性
並討論其適應性。 
由於文獻中對於可壓縮流在 L 型流道中流場的現象極為缺乏，所以本文建構了 L 型流
道來觀測可壓縮流場的現象，如圖 35。其工作流體的選擇為可壓縮理想氣體的水蒸氣，
而流道尺寸其截面為 1 cm×1 cm 的正方形流道，入出口直道部分皆為 8 cm 長，彎道部 
分為 90 度的 L 管，內圈半徑 1 cm，外圈半徑 2 cm。給定入出口壓差為 ，入口
水蒸氣溫度為 373K，其於邊界皆設為絕熱，其結果如圖 36-38 所示。由結果可以發現由
於在彎道處，高速流體直接衝擊外側壁面，所以在彎道外側壓力值最大，速度最小；內側
壓力最小，速度最大。而在流過彎道後的直流道部分，由於離心力的作用，造成外側流體
速度較內側來的大，且外側的溫度也比內側來的低。而在馬赫數方面，L 型彎曲流道出口
時馬赫數已接近於 1，達到了超音速的範圍，所以在工程應用上使用 L 型流道時必須注意。
如同 L 型流道，本計畫建構了 U 型流道來觀測可壓縮流場的現象，如圖 35 所示，流道尺
寸其截面為 1 cm×1 cm 的正方形流道，入出口直道部分皆為 8 cm 長，彎道部分為 180 度
的 U 型流道，內圈半徑 2 cm，外圈半徑 3 cm。給定入出口壓差為 ，入口水蒸
氣溫度為 373K，其於邊界皆設為絕熱。由結果可以發現在第一個彎道處，高速流體直接
衝擊外側壁面，所以在彎道外側壓力值最大，速度最小，且此時彎管外側溫度也達到最高
值；而內側壓力最小，速度最大。而流體在第二個彎道時已受到離心力的作用，此時外側
流體的流速已較內側來的快，但是比第一個彎道時來的低。流體在流過 180 度的彎道後，
持續受到離心力的作用，在直道部份外側流體速度較內側來的大，且外側的溫度也比內側
來的低。而在馬赫數方面，U 型彎曲流道入出口在此壓差下出口馬赫數已經超過 1，達到
了超音速的範圍，所以在工程應用上在使用 U 型流道時必須注意其流場特性。 
Pa106 4×
Pa105.5 4×
縱合 L 型與 U 型的數值計算，其截面的分佈相當不均勻，尤其在轉彎處更加嚴重，因
此若想將 1-維的理論計算應用在此案例上可能會有較嚴重的誤差。然而之前的系統參數探
討發現，若幾何有較細長其差異會較小，因此本研究也探討了微流道。 
(C) 微流道的適應性 
由前面驗證在流道為低長寬比的流道時(非細長流道)，理論的預測與真實流場(L 型與
U 型流道)所呈現出來的現象不相符合，主要關鍵在流速快的時候，熱效應僅能影響邊界
附近，而截面中心大部分不受影響，但是在微流道時，邊界與中心的距離相當的小，此時
 4
     
圖 1  三維漸縮管流道基本外型        圖 2 數值計算(截面平均值)與理論壓力分佈 
      
圖 3 流道方向各位置壓力的相對差異分佈  圖 4 數值計算(截面平均值)與理論馬赫數分佈 
       
圖 5 流道方向各位置馬赫數的差異分佈   圖 6 數值計算(截面平均值)與理論溫度分佈 
     
 6
      
圖 17 熱通量為 7812.5W/m^2 的壓力分佈   圖 18 熱通量為 7812.5W/m^2 的馬赫數分佈 
(入出口面積 12X12，4X4 mm^2)        (入出口面積 12X12，4X4 mm^2) 
     
圖 19 熱通量為 7812.5W/m^2 的溫度分佈   圖 20 熱通量為 7812.5W/m^2 壓力差異比分佈 
     
圖 21 熱通量為 7812.5W/m^2 馬赫數差異分佈  圖 22 熱通量為 7812.5W/m^2 溫度差異比分佈 
     
 8
圖 31 不同面積變化率溫度差異比分佈    圖 32 不同入口面積的相對壓力差異比分佈 
    
圖 33 不同入口面積的馬赫數差異分佈     圖 34 不同入口面積的溫度相對差異比分佈 
 
圖 35 L 型與 U 型流道及其相關尺寸                 圖 36 L 型流道壓力分佈 
    
圖 37 L 型流道溫度分佈                    圖 38 L 型流道馬赫數分佈 
    
 10
