 
中文關鍵詞： 數值預報模式，颱風，預報降水 
英 文 摘 要 ：  
英文關鍵詞：  
 
1 
 
 
摘要 
颱風預報技術的精進對海軍而言是非常重要的任務，因此對於數值預報模
式需要嚴謹地評估與測試，以提升預報作業上的精準度。本研究針對最新版的 
WRF V3.3進行物理參數與颱風植入技術的測試，提供海軍大氣海洋局氣象預報
作業及提升模擬颱風路徑和預報降水能力之參考。 
首先以 2010年的梅雨季期間(2010年 5月 22日 0000 UTC至 6月 15日 1200 
UTC)，利用 7組不同物理參數組合之 WRF模式成員，進行 25天，每天 2次(0000 
UTC 和 1200 UTC)，每次 72 小時的數值預報。並利用公正預兆得分(ETS)進行
降水校驗。以整體結果而言，於各降水門檻以 SBU-YLin 微物理方法加上 Tiedtke 
積雲參數法的設定為最佳。本研究也利用探空站(TEMP)觀測之氣象場資料(包括
高度場、水平風場、溫度場和水汽場)，評估不同物理參數法組合之預報能力。
分析結果顯示，大致上以YSU邊界層參數法，WSM5微物理方法搭配KF (new Eta) 
積雲參數法有較佳的表現。 
接著，針對 2009 年莫拉克(Morakot)颱風與 2010 年凡那比(FANAPI)颱風，
探討颱風植入技術，首先採用中央氣象局製作之颱風Bogus資料(CWB TC Bogus)
進行同化植入，並分別以 3個初始時間進行模擬，分析此技術與不同初始時間對
模擬結果的影響。結果顯示，若初始時間太早，颱風環流侵台期間的颱風路徑預
報有較大的誤差，且有進行颱風植入技術的組別也會出現路徑大幅偏離的現象；
因此建議以預估颱風登陸前 18~30 小時為模擬初始時間才能得到較佳的颱風路
徑預報。至於 CWB TC Bogus 部分，兩個颱風個案模擬均顯示在同時同化其他資
料(地面傳統觀測資料與探空觀測資料)的情況下，再加入 CWB TC Bogus 將有助
於修正颱風路徑且對初始的颱風中心氣壓有下修之影響。另外，當颱風路徑模擬
愈相似於觀測，其降水分布也愈符合實際，但模擬的降水量若未達觀測量，則需
透過物理設定來調整。 
最後使用 WRF 模式內建程式 tc.exe 以凡那比颱風進行颱風人工植入(WRF 
3 
 
 
一、 前言 
由美國 NCAR 發展的新一代中尺度數值天氣預報模 WRF (The Weather 
Research and Forecasting Model)提供多種大氣物理參數法選擇，可供海軍大氣海
洋局等作業單位選用。同時，WRF模式定期更新版本，並釋出新的物理參數法，
由於不同物理參數法有不同的假設，也因此可適用於不同天氣型態和不同地理區
域，於不同條件下選擇不同參數法。因此在使用最新版WRF模式之前，有必要
對其各種設定進行測試，主要目的是為了找出適合台灣地區的最佳 WRF數值方
法，以利海軍大氣海洋局氣象預報作業及提升模擬颱風路徑及預報降水能力。 
為能多了解WRF模式的參數特性，我們將採用 WRF最新版本 V3.3，選定
台灣地區 2010年梅雨期間進行自動雨量觀測資料定量降雨預報(QPF)(簡等 2006)
與探空測站之氣象參數校驗(洪等 2006)，校驗變數和項目至少包括大小雨降水、
高度場、風場、溫度場和水汽場之公正預兆得分(ETS)、偏離係數(Bias)、平均偏
差(ME)和均方根差(RMSE)等。探討 WRF 在不同模式物理參數組合設定下模擬
之差異性。根據校驗結果進行分析，以挑選出模式最佳的物理參數設定。 
接著，對於颱風之模擬，我們使用颱風植入(人造熱帶氣旋，TC bogus)技術，
期望透過改善初始場能提升颱風強度及位置之解析能力。因此採用中央氣象局製
作之颱風 Bogus 資料(CWB TC Bogus)進行同化植入，並分別以 3個初始時間進
行模擬，分析此技術與不同初始時間對模擬結果的影響。 
另外，也針對 WRF模式內建程式 tc.exe進行颱風人工植入(WRF TC Bogus)
測試，除了瞭解此程式設定對颱風模擬的影響外，也期望可有效地調整颱風的路
徑、風速、強度與環流等，有助於提升颱風預報作業。 
 
5 
 
 
有降雨的次數， NFOR  為隨機可正確預測降水的次數，N為預報次數與觀測
次數之和。偏離係數 OFBias  ，即模式預測降水的次數與觀測降水次數之比，
當 Bias 值大於 1 代表模式高估降水次數，小於 1 則代表模式低估降水次數，綜
合 ETS 與 Bias得分的結果，可判斷降水預報的正確性。 
由於模式預報長度為 72 小時，而我們的校驗對象是 12 小時累積降水，因
此將預報長度分為 0～12、12～24、24～36、36～48、48～60 及 60～72 小時六
個時段，分別稱為 A、B、C、D、E 及 F 時段，其中模式開始預報的 A 時段為
spin-up 階段，其降水預報較不可靠，而 F 時段降水得分普遍較小，因此本文不
分析該二時段的降雨預報。另外，為了校驗不同降雨強度的預報準確度，我們使
用 8種降水門檻值，分別是 0.3、2.5、5.0、10.0、15.0、25.0、35.0、50.0 mm，
根據各個門檻值判斷是否有降雨，以檢驗模式對該門檻值降水強度的預報能力。
由於台灣地區自動雨量觀測站共有 300多個，其分布比 5公里解析度的細網格格
點密集，所以我們將細網格點中心之 5公里見方內之自動雨量站降水資料取平均
再與模式降水進行校驗。 
探空測站校驗方面，則是將各成員模擬結果內插至探空站，並和探空站之
觀測資料(包括高度場、水平風場、溫度場和水氣場)，在各等壓面上(1000、925、
850、700、500、400、300、250 和 200 hPa)計算平均偏差(ME)和均方根誤差
(RMSE)。當ME為負值，代表模式預報較觀測偏低，反之則偏高；至於 RMSE 較
小時，代表預報的結果與觀測的結果較為接近。 
2.2 颱風植入(人造熱帶氣旋，TC Bogus)技術 
本實驗以 NCEP GFS 分析場與每 6小時一筆的預報場為初始場與邊界場，
研究個案為 2009 年莫拉克颱風與 2010 年凡那比颱風。模擬初始時間分別有 3
個，莫拉克颱風為 2009 年 8月 6日 1200 UTC、2009年 8月 6日 1800 UTC 和
2009年 8月 7日 0000 UTC，凡那比颱風為 2010年 9月 17日 0600 UTC、2010
7 
 
 
三、 分析與討論 
3.1 WRF 物理參數組合敏感度測試 
3.1.1 WRF模式降水預報與台灣自動雨量站資料之 QPF校驗 
本節針對 2010 年梅雨季的 7 個 WRF 模式成員和台灣自動雨量站觀測之降
水進行 QPF校驗。先由 ETS 得分討論，從 B時段(圖 10a)可見，p02 和 p03的系
集平均在小雨門檻有較高的得分，而 p01、p06和 p07的得分較低；中大雨(10~50 
mm)門檻，則以 p02 有最好的得分表現，而 p01和 p07相對得分是比較低的。因
此，在 B 時段的小雨門檻以 SBU-YLin 微物理方法搭配 Z-M 積雲參數法，有較
佳的得分表現；而中大雨門檻則以 SBU-YLin 微物理方法加上 Tiedtke 積雲參數
法，有相對最高的得分。 
接著看到模擬中段時期的 C 與 D時段，C 時段(圖 10b)顯示，p02 和 p03 在
各個降水門檻的得分都是最高的，尤其是 p03，而 p01和 p05~p07有較低的得分。
D時段(圖 10c)中，p02 於各門檻有較其他五組更高的得分表現，其次是在小雨門
檻的 p03~p05及中大雨門檻的 p03和 p04。可知，模擬中期的 24~36 小時於各降
水門檻以 SBU-YLin 微物理方法搭配 Z-M 積雲參數法的得分表現佳；而 36~48
小時相似於 B 時段的中大雨門檻，以 SBU-YLin 微物理方法加上 Tiedtke 積雲參
數法的 p02，有最高的得分表現。對於模擬中期的降水預報 ETS 得分表現，值得
注意的是 C 時段得分高的 p03 與 D 時段得分高的 p02，兩者同交集的微物理方
法組合即為 SBU-YLin。此結果顯示微物理方法設定為 SBU-YLin，對 WRF 模
擬於各降水門檻，能有較好的預報降水強度的能力。 
最後是模擬後期的 E 時段(圖 10d)，小雨門檻以 p04 有較高的得分，中大
雨門檻仍以 p02 的得分最高。p04 和 p02 兩者有相同的微物理方法 SBU-YLin，
中大雨門檻仍以 SBU-YLin微物理方法搭配 Tiedtke積雲參數有最穩定的高得分。 
9 
 
 
模擬後期的 E 時段顯示，p02在 0.3~25 mm 的 Bias表現仍佳，但 35~50 mm
的大雨門檻出現高估的情況，其次為 p03，在各降水門檻均維持 Bias 值在 0.5~1.0
之間，其他成員的表現則更加低估。p01雖是低估的，但在 D和 E時段均維持在 
0.5上下，算是穩定的表現。 
透過以上分析 Bias 最接近 1.0的結果歸納於表 5，整體以 p02 有穩定的表
現。搭配 ETS 得分來看最高者來看(表 4)，可知在降水預報部分以 SBU-YLin 微
物理方法有較佳的表現，積雲參數法則以 Tiedtke 參數法優於 Z-M 參數法，
New GFS SAS 參數法則較差。 
3.1.2 WRF模式探空測站之氣象參數校驗 
探空測站校驗則利用東亞地區探空站觀測之氣象場進行校驗，粗(D1)、細
(D2和 D3)網格積分範圍列入校驗的探空數目分別為 175、28和 9站，在此對三
層作探討，分析標準層包含 1000、925、850、700、500、400、300、250及 200 
hPa，共計 9層，分析氣象場項目如下：重力位高度(Z)、水平風場(U、V)、溫度
場(T)與濕度場(Q)。 
圖 12a 和 b 是 D1 模式結果之重力位高度場的 ME 及 RMSE 垂直分布。從
ME顯示(圖 12a)，成員 p02~p06約以 850 hPa為界線，850 hPa高度以下之 ME
為正值屬於高估，850~400 hPa 高度之間ME 為負值增加屬於低估，400 hPa高度
以上ME隨著高度增加低估情形漸減小，成員 p05~p07更漸轉為正值為高估的情
形，可知 WRF 模擬 D1 重力位高度場有低層略為高估，中層低估明顯之現象。
其中，成員 p01於低層最接近 0，代表高度場的預報與觀測相似，但隨著高度增
加ME低估的情況更加明顯。 
再從 RMSE 得知(圖 12b)，在 700 hPa高度以下，p01~p04的表現穩定，加
上 ME 是接近 0 與略為高估，推論 700 hPa 高度以下，使用過去最佳物理設定
YSU 邊界層參數法搭配 WSM5 微物理方法和 KF 積雲參數法，以及 B-Park/UW
11 
 
 
場仍然是 SBU-YLin 微物理方法的預報表現較 M-Y 2-moment 微物理方法佳。 
D1的水氣場校驗中，各組在 850 hPa 高度以下的 ME值(圖 12i)呈現預報低
估，850 hPa高度以上則為接近 0值至略為高估，其中以 p01表現最佳，且 RMSE
中除了 850 hPa上下之外，其他層也是 p01的誤差最小，表示 p01在 D1的水氣
場表現仍維持相當的水準，p02~p04也有不錯的預報表現。另外，水氣場的 RMSE
隨高度的變化有與其他氣象場相反的分布，為低層誤差較大，而隨著高度增加則
誤差降低，表示水氣場在中、高層在各組有較低層好的預報表現。不過與前述相
似的是，M-Y 2-moment 微物理方法的成員 p05~p07 仍有較大的誤差。 
由 D1各氣象場的探空校驗分析可知，在高度場、水平風場和溫度場以 p01
和 p04的預報表現最佳，p02和 p03也有不錯的預報結果，水氣場部分以 p01的
表現較優，其次為 p02~p04。因此綜觀預報的模擬仍可繼續使用過去的最佳預報
物理設定，即 YSU 邊界層參數法搭配WSM5 微物理方法加上 KF 積雲參數法，
亦可以使用 B-Park/UW 邊界層參數法搭配 SBU-YLin 微物理方法再加上其他積
雲參數法的組合。 
水平解析度提高至 15 km 之 D2探空校驗在重力位高度場的 ME (圖 13a)和
RMSE (圖 13b)表現相似於 D1，且預報誤差隨高度上升有更為增加的現象。其中
p02~p04的表現較佳，p01其次。水平東西向(U)風場的ME (圖 13c)顯示 500 hPa
高度以下各組為預報低估，500 hPa高度以上則較為接近 0的現象，其中 p01和
p04是略為高估的情形，配合 RMSE (圖 13d)可知在各層高度以 p04的表現較佳，
其次為同是 SBU-YLin微物理方法的其他成員與 p01。南北向(V)風場ME (圖 13e)
中的 p01~p04隨高度均是預報低估，且隨高度增加有低估加強的情形，直到 500 
hPa 高度以上為穩定的負偏差。p05~p07 於高度 500 hPa 以下為穩定的負偏差，
反之隨高度增加逐漸接近 0值後再轉為負值，顯示 M-Y 2-moment 微物理方法的
模擬預報成員在南北風場隨高度的預報誤差幅度較大。RMSE (圖 13f)的分布與
13 
 
 
方海面生成，5日晚間增強為中度颱風並向西移動，進入臺灣東部近海時受地形
影響，速度略為減慢並轉向西北，7 日 23 時 50 分左右在花蓮市附近登陸，8 日
14 時左右在桃園附近出海，於 9 日 18 時 30 分左右在馬祖北方進入福建。由圖
16 可見此颱風的環流雲系與引進之西南氣流，造成中南部、東部多處地區於 8
月 7~8 日兩天的累積雨量達 1500~2000 多毫米(圖 17)，降下刷新歷史紀錄的雨
量，引發嚴重水患，造成臺南、高雄、屏東及臺東等縣重大災情，鐵、公路多處
路基流失造成交通中斷，多處地區發生嚴重土石流災害。 
凡那比颱風為 2010年編號第 11號颱風(圖 18)，於 9月 14日在琉球南方海
面生成，向東北緩慢移動，16 日增強為中度颱風後緩慢向北轉北北西移動，之
後轉為偏西移動，暴風圈接觸台灣陸地後逐漸轉向西南西至西南方向移動，19
日 8時 40分在花蓮縣豐濱鄉附近登陸，18時左右由臺南附近進入臺灣海峽，20
日 7 時左右由福建進入大陸。雷達回波(圖 19a~e)顯示，颱風在登陸之際於宜蘭
和花蓮地區受颱風環流直接影響，登陸離台後則在在颱風環流影響之下，從西南
方引入大量雲系，導致西南部平地到山區降下 500~1000毫米的日雨量(圖 19f)，
造成臺南、高雄及屏東等地區淹水，部分地區鐵、公路交通受阻。 
3.2.1 WRF模擬結果與實際觀測之比較 
(1)  2009 年莫拉克颱風 
本節首先討論初始時間不同對莫拉克颱風模擬路徑之影響。圖 20顯示，模
擬初始時間約為颱風登陸前 24 小時(2009080618)或更早(2009080612)(圖 20a 和
b)，NWD、SS 和 TB 組會產生無登陸台灣的預報路徑，尤其是 TB 組，在模擬
初始時間為颱風登陸前 30小時的預報路徑更是大幅偏離。至於 SSGB和 SSGBTB
組預報路徑則有通過台灣，顯示為了彌補海上觀測資料不足而加入的 GFS 
BOGUS 資料對模擬預報有相當的貢獻度。當模擬初始時間為颱風登陸前 18 小
時(2009080700)(圖 20c)，各組的預報路徑在颱風影響台灣期間較相似於實際觀
15 
 
 
由於颱風的路徑變化會影響整體雲帶的位置走向，進而影響降水分布與累
積雨量，於是我們看路徑誤差較小的模擬初始時間 2009080700各組 24 小時累積
雨量與降水分布。 
圖 17和圖 22 分別是觀測和模擬的 24 小時累積雨量，從模擬各組(圖 22a、
c、e、g和 i)與觀測(圖 17a)的第一天(2009080700~2009080800)比較可發現，NWD 
組有最佳的模擬結果，不只台灣南部山區有大量降水，西南部陸地也有與觀測較
為相似的降水分布。其次為 SS，再者為 SSGB。而有加入 CWB TC Bogus 資
料的 TB 及 SSGBTB 組模擬的降水分布則偏南。由雷達回波比較可知 NWD
組(圖 23a和 b)模擬的雲帶在實際觀測(圖 16a~c)主要影響台灣西南部的時間點，
也有類似的雲帶影響台灣西南部，因此降水分布較相似於觀測；SSGBTB 組的
雷達回波(圖 24a 和 b)顯示整體雲帶則因颱風模擬位置偏南而使得雲系在台灣南
方發展，導致降水分布較觀測偏南。 
第二天(2009080800~2009080900)模擬各組(圖 22b、d、f、h 和 j)與觀測(圖
17b)中，雖然第一天加入 CWB TC Bogus 資料的組別(TB和 SSGBTB 組)降水分
布與觀測差異大，但模擬至第二天時降水分布則開始與觀相似。由 SSGBTB 組
的雷達回波(圖 24b~d)可見，在 24~48小時期間的模擬颱風路徑與觀測誤差減小，
使雲雨帶有部分相似於實際雲帶走向，也修正降水的分布。不過仍然以 NWD 組
模擬的雲雨帶(圖 23)與觀測最相近，只是後期模擬的颱風路徑往北和西北移動較
快，但不影響颱風侵台期間的預報。由上述可知，當颱風路徑模擬愈相似於觀測，
模擬的降水分布也愈符合實際分布。 
颱風除了帶來大量降水之外，強勁的風勢也是不容小覷，尤其是海軍進行
海上作業時，風速與風向往往影響航行的方式，於是在此將各組模擬 26 小時的
海面上 10公尺風場(圖 25b~f)與 2009年 8月 8 日 0205 UTC ASCAT衛星觀測風
場(圖 25a)進行比較。 
17 
 
 
微物理方法和 G-D ensemble 積雲參數法的情況下，降水模擬結果表現不盡理想，
有別於相同設定之莫拉克颱風的模擬結果，表示不同的颱風個案模擬不一定適用
相同的物理參數設定。 
對此我們以凡那比颱風降水模擬結果為目標，以三組物理設定分別進行有
無WRF TC BOGUS 的降水模擬測試(SS 和 SSTC 組)，由圖 29中發現降水模擬
雖然整體而言台灣西南部平地累積降水偏少，但已有明顯地修正，且在綜合比較
SS 與 SSTC 組後，此個案以物理設定 YSU邊界層參數法，搭配 SBU-YLin 微物
理方法和 KF 積雲參數法的降水表現最佳，表示改變物理參數設定對降水模擬有
相當程度的影響，尤其是積雲參數法。另外，可發現有進行 WRF TC Bogus 之
組別，整體的颱風環流較無進行者偏小，引起我們想探討其中設定對颱風模擬的
影響，於是接著進行 WRF TC Bogus 設定調整測試。 
WRF TC Bogus 設定調整測試分別有 SSTC1~4 四組並與 SS 組相互對照，
路徑預報與誤差模擬結果呈現於圖 26d和圖 27g，首先可明顯地發現凡那比颱風
在物理設定調整為 YSU 邊界層參數法，搭配 SBU-YLin 微物理方法和 KF 積雲
參數法後於路徑表現上也有明顯地改善，各組在模擬 54 小時前的路徑誤差均在
100公里以下，而有進行 WRF TC Bogus 調整的 SSTC1~4 組在模擬 42 小時之前
的路徑誤差比 SS 組更小，大部分在 50公里左右，其中 SSTC3 和 SSTC4 組的路
徑誤差更是小於 50 公里。颱風中心氣壓(圖 27h)部分，各組在模擬 24 小時前，
隨著時間均有氣壓加強的情形，但 SSTC1~4 組的氣壓加強速度稍快，比觀測提
早 6小時達中心氣壓最低值，SS 組的氣壓下降的較慢。模擬 24小時後 SSTC1~4
組開始有相似於觀測氣壓的發展，其中以 SSTC3 組的表現最接近觀測值，而 SS
組則上升緩慢而使得氣壓模擬過強。 
既然透過WRF TC Bogus 設定調整後的組別在颱風路徑預報與氣壓值有明
顯地改善，降水分布模擬的狀況可由圖 29d 的 SSTC1 組和圖 30 的 SSTC2~4 組
19 
 
 
略比 SSTC1 強些；模擬 30小時颱風中心接觸或抵達陸地，風速開始受到影響，
不過兩組的風速模擬表現仍比觀測略強 2.5 m s-1。SSTC3 (圖 34j)和 SSTC4 組(圖
34m)在初始時間颱風中心東側的風速相較於觀測雖然強些，但又比前兩組再下修
約 2.5 m s-1，且以 SSTC3 組有較相似於觀測風速的模擬結果；模擬 12 小時的
SSTC4 組(圖 34k)由於風速遞減較 SSTC3 組(圖 34n)慢，所以部分地區的風速表
現略強；模擬 30小時於兩組(圖 34l 和 34o)的風速均比前述兩組在下修一些，呈
現較相似於觀測風速的分布狀態。 
最後，比較 2010 年 9 月 20 日 0121 UTC 的 ASCAT 衛星風場(圖 35a)，各
組對應的模擬時間是 2010年 9月 20日 0100 UTC，及模式模擬 55小時，兩者有
21 分鐘的時間差，此時的颱風中心已經從台灣出海並登陸華南沿岸。風速分布
結果顯示，SS 組(圖 35b)在台灣西南方的風速(12.5~15 m s-1)明顯地較 ASCAT風
場(約 10~15 m s-1)來得強，而透過 WRF TC Bogus 颱風植入技術的 SSTC1~4 組
(圖 35c~f)，均有效地改善風速強度，使台灣西南方的風速模擬結果同為 ASCAT
風場的 10~15 m s-1。根據中央氣象局 2010年 9月 20日 0115 UTC 發布的颱風警
報單資訊，此時的 10級風(24.5~28.4 m s-1)的暴風半徑為 50公里，SSTC1和 SSTC
組在離颱風中心 50 公里的風速則偏弱(20~22.5 m s-1)，SSTC3 和 SSTC4 組為
25~30 m s
-1是較符合觀測風速的分布結果。 
透過上述可知，WRF TC Bogus 颱風植入設定的測試中，以 SSTC3組有最
佳調整結果，不論是路徑、氣壓、降水亦或是風速預報，均有良好調整貢獻。且
由 WRF TC Bogus 設定測試的分析可知此技術可以大幅度地調整模擬之颱風環
流風速，若將風速遞減率增加，會加強颱風中心氣壓值，其颱風風速隨距離增加
而減小的幅度愈緩和。若設定值中的暴風半徑加大，且風速減小，模擬之風速隨
距離的變化也趨緩。另外，經由這幾組模擬可發現，設定值中的暴風半徑位置的
模擬結果風速，大約是設定值中的最大風速乘上風速遞減率的平方，未來可參考
中央氣象局的颱風警報單之 10 級風暴風半徑大小設定之。 
21 
 
 
颱風植入技術之 CWB TC Bogus 部分，在兩個颱風個案模擬中雖然不是模
擬表現最佳組別，但均顯示在同時同化其他資料(地面傳統觀測資料與探空觀測
資料)的情況下，再加入 CWB TC Bogus 將有助於修正颱風路徑且對初始的颱風
中心氣壓有下修之影響。至於進行 WRF模式內建程式之 WRF TC BOGUS 部分，
在凡那比颱風個案模擬中發現其在路徑、氣壓、降水分布與風場均有明顯的預報
改善貢獻，且從調整最大暴風半徑、最大持續風速和風速遞減率的設定之各組模
擬結果可知，此項技術可以大幅度地調整模擬之颱風環流風速，若將風速遞減率
增加，會加強颱風中心氣壓值，其颱風風速隨距離增加而減小的幅度愈緩和。若
設定值中的暴風半徑加大，且風速減小，模擬之風速隨距離的變化也趨緩。另外，
經由這幾組模擬可發現，設定值中的暴風半徑位置的模擬結果風速，大約是設定
值中的最大風速乘上風速遞減率的平方，未來可參考中央氣象局的颱風警報單之 
10 級風暴風半徑大小設定之。 
WRF模式所提供的物理設定還有許多參數可選擇，未來將持續測試並進行
校驗分析，以取得更佳的物理參數組合，提供預報作業的進行。WRF TC BOGUS
颱風植入技術屬於新的一項技術，未來仍有待進行更多的颱風個案模擬，以對此
技術有更清楚地了解並掌握設定值的調整方法，並提升颱風預報作業的精準度。 
以上資訊提供海軍大氣海洋局在模式數值預報應用，使海軍在任務執行上
對颱風等天氣系統動向的掌握更加精確，提升任務進行的安全性與作戰效率。 
23 
 
 
表 1 WRF模式敏感度測試之物理參數組合設定 
 
表 2 颱風模擬同化資料之組別 
組別 
同 化 資 料 
SYNOP TEMP GFS Bogus CWB TC Bogus WRF TC Bogus 
NWD - - - - - 
TB - - - ○ - 
SS ○ ○ - - - 
SSGB ○ ○ ○ - - 
SSGBTB ○ ○ ○ ○ - 
SSTB ○ ○ - ○ - 
SSTC ○ ○ - - ○ 
 
表 3 各組WRF TC BOGUS 颱風植入設定內容 
 
表 4 ETS 得分最高者綜合歸納表 
 
組別 邊界層參數法 微物理方法 積雲參數法 
p01 (1) YSU   (4) WSM5   (1) KF  
p02 (9) B-Park/UW  (13) SBU-YLin   (6) Tiedtke  
p03 (9) B-Park/UW  (13) SBU-YLin  (7) Z-M  
p04 (9) B-Park/UW  (13) SBU-YLin  (14) New GFS SAS  
p05 (9) B-Park/UW   (9) M-Y 2-moment   (6) Tiedtke  
p06 (9) B-Park/UW  (9) M-Y 2-moment   (7) Z-M  
p07 (9) B-Park/UW   (9) M-Y 2-moment  (14) New GFS SAS  
 SSTC1 SSTC2 SSTC3 SSTC4 
颱
風
植
入
資
料 
緯度 23.2 
經度 126.9 
最大風速半徑 70 70 80 80 
最大持續風速 60 60 50 50 
風速遞減率 (Rankine vortex) 0.75 0.8 0.75 0.8 
時段 (ETS) 0.3, 2.5, 5 (mm) 10, 15 (mm) 25, 35, 50 (mm) 
B (12-24 h) p03 p02 p02 
C (24-36 h) p03 p03 p03 
D (36-48 h) p02 p02 p02 
E (48-60 h) p04 p02 p02 
25 
 
 
 
圖 1 2010年梅雨季期間，全台灣自動雨量站每日 0000和 1200 UTC 的過去 12
小時累積平均雨量，紅框為本次實驗的模擬時間，5月 22日 0000 UTC 至 
6月 15日 1200 UTC。 
 
 
圖 2 2010年梅雨季實驗模式網格設定，第一層粗網格(D1)是 180x105，第二層
細網格(D2)是 100x100，第三層網格(D3)是 103x121，水平解析度分別為
45公里、15 公里及 5公里。 
 
D1 
D2 
D3 
00 Z  12 Z 
27 
 
 
 
圖 5 同圖 3，但為模擬初始時間 2009080700。 
 
 
圖 17 凡那比颱風個案模擬初始時間 2010091706之資料同化加入模式的資料種
類、數量與位置，(a) 地面綜觀測站資料 1312點 (b) 探空觀測資料 2點
和 (c) 中央氣象局颱風植入 BOGUS 32 點。 
 
(a)  + 1268 SYNOP (b)  ○ 189 SOUND 
(c)  ○ 40 CWB TC BOGUS (d)  ○ 130 GFS BOGUS 
(a)  + 1312 SYNOP (b)  ○ 2 SOUND 
(c)  ○ 32 CWB TC BOGUS 
                               
     
6 凡那比颱風個案模擬初始時間 2010091706
(a)  1312  (b)  2
 (c)  BOGUS 32  
29 
 
 
 
圖 9 颱風個案模擬之模式網格設定，第一層粗網格(D1)是 222 x128，第二層細
網格(D2)是 184 x196，第三層網格(D3)是 151 x181，水平解析度分別為 45
公里、15公里及 5公里。 
 
D3 
D2 
D1 
31 
 
 
 
圖 12 模式 D1模擬結果之 (a)(b) 重力位高度場，(c)(d) U風場，(e)(f) V 風場，
(g)(h) 溫度場，(i)(j) 水氣場之 ME值與 RMSE值垂直分布。 
(a) (b) 
(c) (d) 
(e) (f) 
(g) (h) 
(i) (j) 
33 
 
 
 
圖 14 同圖 12，但為模式 D3 模擬結果。 
 
(a) (b) 
(c) (d) 
(e) (f) 
(g) (h) 
(i) (j) 
35 
 
 
 
圖 17 (a) 2009年 8月 7日 0000 UTC ~ 8日 0000 UTC (b) 2009年 8月 8日 0000 
UTC ~ 9日 0000 UTC 全台自動雨量站 24 小時累積雨量，單位 mm。 
 
 
圖 18 2010年凡那比颱風觀測路徑圖。 
 
(b)  (a)  
37 
 
 
  
  
  
圖 21 2009年莫拉克颱風，觀測與 WRF 模式依不同初始時間模擬的預報路徑
誤差與中心氣壓分布。(a)和(b)為初始時間 2009080612，(c)和(d)為初始時
間 2009080618，(e)和(f)為初始時間 2009080700。 
(a)  (b)  
(e)  (f)  
(c)  (d)  
39 
 
 
 
圖 22 (續) 
 
(g) SSGB day 1 (h) SSGB day 2 
(i) SSGBTB day 1 (j) SSGBTB day 2 
41 
 
 
 
圖 24 同圖 23，但為 SSGBTB組。 
 
(b) 24 hr：8月 8日 0000 UTC (a) 12 hr：8月 7日 1200 UTC 
(d) 48 hr：8月 9日 0000 UTC (c) 36 hr：8月 8日 1200 UTC 
43 
 
 
  
  
  
  
圖 27 同圖 21，但為 2010年凡那比颱風。(a)和(b)為初始時間 2010091706，(c)
和(d)為初始時間 2010091712，(e)~(h)為初始時間 2010091718，其中(g)(h)
的物理設定為 SBU-YLin 微物理方法搭配 K-F 邊界層參數法之 WRF TC 
Bogus 測試組別。 
 
(a)  (b)  
(c)  (d)  
(e)  (f)  
(g)  (h) 
45 
 
 
 
圖 29 同圖 22，但為凡那比颱風 WRF模擬初始時間 2010091718不同物理參數
設定與WRF TC BOGUS 測試之第 54 小時的 24小時累積雨量、海平面氣
壓與風場。(a)和(b)為 YSU邊界層參數法搭配 WSM 5-class微物理方法和
Kain-Fritsch (new Eta)積雲參數法，(c)和(d)的邊界層與積雲參數法同(a)，
但搭配 SBU-YLin 微物理方法，(e)和(f)為 B-Park/UW TKE邊界層參數法
搭配 SBU-YLin 微物理方法和 Tiedtke積雲參數法。 
(a) b1m4c1ss (b) b1m4c1sstc 
(c) b1m13c1ss (SS) (d) b1m13c1sstc (SSTC1) 
(e) b9m13c6ss (f) b9m13c6sstc 
47 
 
 
 
圖 31 凡那比颱風 WRF模擬之 SS 組 D3每 6小時的最大雷達回波圖(色階，單
位 dBZ)，黑色風標為 1000 hPa之風向和風速，其全、半桿分別表示 10、
5 kts。 
 
(a) 30 hr：9月 19日 0000 UTC 
(e) 54 hr：9月 20日 0000 UTC 
(c) 42 hr：9月 19日 1200 UTC 
(b) 36 hr：9月 19日 0600 UTC 
(d) 48 hr：9月 19日 1800 UTC 
49 
 
 
 
圖 33 SS 組和進行 WRF TC BOGUS 處理之 SSTC1~4組模擬 0、12和 30小時
颱風暴風半徑 200公里左右範圍之風場與風速圖，色階為每 2.5 m s-1間
隔之風速。(a)~(c)為 SS 組，(d)~(f)為 SSTC1 組，(g)~(i)為 SSTC2 組，(j)~(l)
為 SSTC3 組，(m)~(o)為 SSTC4 組。 
(d) SSTC1：0 hr 
(g) SSTC2：0 hr 
(b) SS：12 hr 
(e) SSTC1：12 hr 
(h) SSTC2：12 hr 
(c) SS：30 hr 
(f) SSTC1：30 hr 
(i) SSTC2：30 hr 
(a) SS：0 hr 
51 
 
 
 
圖 34 同圖 33，但為模擬 0、12和 30小時颱風暴風半徑 80公里左右範圍之風
場與風速圖。(a)~(c)為 SS 組，(d)~(f)為 SSTC1 組，(g)~(i)為 SSTC2 組，
(j)~(l)為 SSTC3 組，(m)~(o)為 SSTC4 組。 
 
(b) SS：12 hr (c) SS：30 hr (a) SS：0 hr 
(e) SSTC1：12 hr (f) SSTC1：30 hr (d) SSTC1：0 hr 
(h) SSTC2：12 hr (i) SSTC2：30 hr (g) SSTC2：0 hr 
53 
 
 
 
圖 35 同圖 25，但為凡那比颱風個案之分析。(a) 2010年 9月 20 日 0121 UTC 
ASCAT 衛星風場，(b)~(f)分別為 SS 組和 SSTC1~4 組模擬 55 小時(2010
年 9月 20日 0100 UTC)的風場。 
 
(a) ASCAT (b) SS (c) SSTC1 
(d) SSTC2 (e) SSTC3 (f) SSTC4 
100 年度專題研究計畫研究成果彙整表 
計畫主持人：簡芳菁 計畫編號：100-2623-E-003-002-D 
計畫名稱：颱風預報精進技術研究及作業支援 
量化 
成果項目 實際已達成
數（被接受
或已發表）
預期總達成
數(含實際已
達成數) 
本計畫實
際貢獻百
分比 
單位 
備 註 （ 質 化 說
明：如數個計畫
共同成果、成果
列 為 該 期 刊 之
封 面 故 事 ...
等） 
期刊論文 0 0 100%  
研究報告/技術報告 0 0 100%  
研討會論文 0 0 100% 
篇 
 
論文著作 
專書 0 0 100%   
申請中件數 0 0 100%  專利 已獲得件數 0 0 100% 件  
件數 0 0 100% 件  
技術移轉 
權利金 0 0 100% 千元  
碩士生 2 3 70%  
博士生 0 0 100%  
博士後研究員 0 0 100%  
國內 
參與計畫人力 
（本國籍） 
專任助理 1 1 100% 
人次 
 
期刊論文 0 0 100%  
研究報告/技術報告 0 0 100%  
研討會論文 0 0 100% 
篇 
 
論文著作 
專書 0 0 100% 章/本  
申請中件數 0 0 100%  專利 已獲得件數 0 0 100% 件  
件數 0 0 100% 件  
技術移轉 
權利金 0 0 100% 千元  
碩士生 0 0 100%  
博士生 0 0 100%  
博士後研究員 0 0 100%  
國外 
參與計畫人力 
（外國籍） 
專任助理 0 0 100% 
人次 
 
國科會補助專題研究計畫成果報告自評表 
請就研究內容與原計畫相符程度、達成預期目標情況、研究成果之學術或應用價
值（簡要敘述成果所代表之意義、價值、影響或進一步發展之可能性）、是否適
合在學術期刊發表或申請專利、主要發現或其他有關價值等，作一綜合評估。
1. 請就研究內容與原計畫相符程度、達成預期目標情況作一綜合評估 
■達成目標 
□未達成目標（請說明，以 100 字為限） 
□實驗失敗 
□因故實驗中斷 
□其他原因 
說明： 
2. 研究成果在學術期刊發表或申請專利等情形： 
論文：□已發表 □未發表之文稿 □撰寫中 ■無 
專利：□已獲得 □申請中 ■無 
技轉：□已技轉 ■洽談中 □無 
其他：（以 100 字為限） 
3. 請依學術成就、技術創新、社會影響等方面，評估研究成果之學術或應用價
值（簡要敘述成果所代表之意義、價值、影響或進一步發展之可能性）（以
500 字為限） 
颱風預報技術的精進對海軍而言是非常重要的任務，因此對於數值預報模式需要嚴謹地評
估與測試，以提升預報作業上的精準度。本研究針對最新版的 WRF V3.3 進行物理參數與
颱風植入技術的測試，提供海軍大氣海洋局氣象預報作業及提升模擬颱風路徑和預報降水
能力之參考。 
首先以 2010 年的梅雨季期間，利用 7組不同物理參數組合之 WRF 模式成員，進行 25 天，
每天 2次，每次 72 小時的數值預報。並利用公正預兆得分(ETS)進行降水校驗。以整體結
果而言，於各降水門檻以 SBU-YLin 微物理方法加上 Tiedtke 積雲參數法的設定為最佳。
本研究也利用探空站觀測之氣象場資料，評估不同物理參數法組合之預報能力。分析結果
顯示，大致上以 YSU 邊界層參數法，WSM5 微物理方法搭配 KF (new Eta) 積雲參數法有較
佳的表現。 
接著，針對 2009 年莫拉克颱風與 2010 年凡那比颱風，探討颱風植入技術，首先採用中央
氣象局製作之颱風 Bogus 資料(CWB TC Bogus)進行同化植入，並分別以 3個初始時間進行
模擬，分析此技術與不同初始時間對模擬結果的影響。結果顯示，若初始時間太早，颱風
環流侵台期間的颱風路徑預報有較大的誤差，且有進行颱風植入技術的組別也會出現路徑
大幅偏離的現象；因此建議以預估颱風登陸前 18~30 小時為模擬初始時間才能得到較佳的
颱風路徑預報。至於 CWB TC Bogus 部分，兩個颱風個案模擬均顯示在同時同化其他資料(地
面傳統觀測資料與探空觀測資料)的情況下，再加入 CWB TC Bogus 將有助於修正颱風路徑
且對初始的颱風中心氣壓有下修之影響。另外，當颱風路徑模擬愈相似於觀測，其降水分
